tests/fuzzer/corpus_json/24_columnar_25_tap_regulator_mixed_grid.json
{
  "version": "1.0",
  "type": "input",
  "is_batch": false,
  "attributes": {
    "node": [
      "id",
      "u_rated"
    ],
    "source": [
      "id",
      "node",
      "status",
      "u_ref",
      "u_ref_angle",
      "sk",
      "rx_ratio",
      "z01_ratio"
    ],
    "line": [
      "id",
      "from_node",
      "to_node",
      "from_status",
      "to_status",
      "r1",
      "x1",
      "c1",
      "tan1",
      "r0",
      "x0",
      "c0",
      "tan0",
      "i_n"
    ],
    "transformer": [
      "id",
      "from_node",
      "to_node",
      "from_status",
      "to_status",
      "u1",
      "u2",
      "sn",
      "uk",
      "pk",
      "i0",
      "p0",
      "winding_from",
      "winding_to",
      "clock",
      "tap_side",
      "tap_pos",
      "tap_min",
      "tap_max",
      "tap_nom",
      "tap_size"
    ],
    "transformer_tap_regulator": [
      "id",
      "regulated_object",
      "status",
      "control_side",
      "u_set",
      "u_band",
      "line_drop_compensation_r",
      "line_drop_compensation_x"
    ],
    "sym_load": [
      "id",
      "node",
      "status",
      "type",
      "p_specified",
      "q_specified"
    ],
    "asym_load": [
      "id",
      "node",
      "status",
      "type",
      "p_specified",
      "q_specified"
    ],
    "sym_gen": [
      "id",
      "node",
      "status",
      "type",
      "p_specified",
      "q_specified"
    ],
    "asym_gen": [
      "id",
      "node",
      "status",
      "type",
      "p_specified",
      "q_specified"
    ],
    "shunt": [
      "id",
      "node",
      "status",
      "g1",
      "b1",
      "g0",
      "b0"
    ]
  },
  "data": {
    "node": [
      [
        10,
        10500.0
      ],
      [
        11,
        10500.0
      ],
      [
        12,
        10500.0
      ],
      [
        13,
        10500.0
      ],
      [
        14,
        400.0
      ]
    ],
    "source": [
      [
        1,
        10,
        1,
        1.0,
        0.0,
        1000000000.0,
        0.1,
        1.0
      ]
    ],
    "line": [
      [
        20,
        10,
        11,
        1,
        1,
        0.25,
        0.2,
        1e-08,
        0.0,
        0.5,
        0.4,
        1e-08,
        0.0,
        1000.0
      ],
      [
        21,
        11,
        12,
        1,
        1,
        0.25,
        0.2,
        1e-08,
        0.0,
        0.5,
        0.4,
        1e-08,
        0.0,
        1000.0
      ],
      [
        22,
        12,
        13,
        1,
        1,
        0.25,
        0.2,
        1e-08,
        0.0,
        0.5,
        0.4,
        1e-08,
        0.0,
        1000.0
      ],
      [
        23,
        13,
        10,
        1,
        1,
        0.25,
        0.2,
        1e-08,
        0.0,
        0.5,
        0.4,
        1e-08,
        0.0,
        1000.0
      ]
    ],
    "transformer": [
      [
        30,
        13,
        14,
        1,
        1,
        10500.0,
        400.0,
        1000000.0,
        0.06,
        1000.0,
        0.01,
        500.0,
        2,
        1,
        5,
        0,
        0,
        -5,
        5,
        0,
        100.0
      ]
    ],
    "transformer_tap_regulator": [
      [
        31,
        30,
        1,
        1,
        400.0,
        20.0,
        0.0,
        0.0
      ]
    ],
    "sym_load": [
      [
        40,
        11,
        1,
        0,
        100000.0,
        20000.0
      ],
      [
        41,
        14,
        1,
        1,
        20000.0,
        5000.0
      ]
    ],
    "asym_load": [
      [
        42,
        12,
        1,
        2,
        [
          30000.0,
          20000.0,
          10000.0
        ],
        [
          3000.0,
          2000.0,
          1000.0
        ]
      ]
    ],
    "sym_gen": [
      [
        50,
        12,
        1,
        0,
        50000.0,
        0.0
      ]
    ],
    "asym_gen": [
      [
        51,
        13,
        1,
        0,
        [
          10000.0,
          10000.0,
          10000.0
        ],
        [
          0.0,
          0.0,
          0.0
        ]
      ]
    ],
    "shunt": [
      [
        60,
        11,
        1,
        0.0,
        0.0001,
        0.0,
        0.0001
      ]
    ]
  }
}
